LAMMPS (2 Aug 2023 - Update 1)
Loaded 1 plugins from D:\LAMMPS\LAMMPS 64-bit 2Aug2023 with GUI\plugins

units metal
atom_style molecular
boundary s s s    #non-periodic

# System definition
read_restart Energy_min_hydrocarbon_bearing.init.restart
Reading restart file ...
  restart file = 2 Aug 2023, LAMMPS = 2 Aug 2023
  restoring atom style molecular from restart
  orthogonal box = (-22.573557 -8.3355713 -19.4939) to (16.437919 10.779873 19.505279)
  pair style airebo stores no restart info
  2472 atoms
Finding 1-2 1-3 1-4 neighbors ...
     0 = max # of 1-2 neighbors
     0 = max # of 1-3 neighbors
     0 = max # of 1-4 neighbors
     1 = max # of special neighbors
  read_restart CPU = 0.018 seconds

# set groups
group free type 1 2
2363 atoms in group free
group anchor type  3 4
28 atoms in group anchor
group roty type   5 6
81 atoms in group roty

# Pair Coefficients
pair_style	airebo 3.0 1 0
pair_coeff * * CH.airebo C H C H C H
Reading airebo potential file CH.airebo with DATE: 2011-10-25

#freeze the anchor
fix anchorfix anchor setforce 0.0 0.0 0.0 #first is ID = user-assigned name for the fix,  ID of the group of atoms
velocity anchor set 0.0 0.0 0.0

#add the MD part to come to temp
fix nve all nve
timestep 0.00025 #picoseconds/step = 1E-12 seconds

# bring the temp of all the free 90K slowly
fix thermo_free free temp/berendsen 0. 90. 0.25

#output
thermo 10
run 1000
Step          Temp          E_pair         E_mol          TotEng         Press          Volume
4   0             -13314.913      0             -13314.913     -16378.264      29070.521
Averages over the last 51 of 102 rows, steps 510 to 1004:
Temp E_pair E_mol TotEng Press Volume
22.1395 -13317.1 0 -13310.1 -6329.95 29070.5
Loop time of 32.8846 on 1 procs for 1000 steps with 2472 atoms

write_restart hydrocarbon_bearing_at_temp.init.restart
System init for write_restart ...
